<?xml version="1.0" encoding="UTF-8"?>

<!-- generated on 2025-11-03 19:02:51 by Eclipse SUMO netedit Version 1.24.0
-->

<routes xmlns:xsi="http://www.w3.org/2001/XMLSchema-instance" xsi:noNamespaceSchemaLocation="http://sumo.dlr.de/xsd/routes_file.xsd">
    <!-- Routes -->
    <route id="r_0" edges="E9.71 -E4 -E3 -E2 -E1.821"/>
    <route id="r_1" edges="E5 E2"/>
    <route id="r_10" edges="E1.118 -E5"/>
    <route id="r_11" edges="-E2 -E5"/>
    <route id="r_12" edges="E4 E9.71.453 E0"/>
    <route id="r_13" edges="-E0 E9.71.541"/>
    <route id="r_14" edges="-E9.104 E0"/>
    <route id="r_15" edges="-E9.104 -E9.104.235"/>
    <route id="r_16" edges="E9.71.453 E9.71.541"/>
    <route id="r_17" edges="E9.71 E9.71.453"/>
    <route id="r_18" edges="-E9 -E1"/>
    <route id="r_19" edges="-E9 -E9.104"/>
    <route id="r_2" edges="E5 E1.410"/>
    <route id="r_20" edges="E9.71.541 E9.72"/>
    <route id="r_21" edges="E9.71.541 -E1"/>
    <route id="r_22" edges="E1.410 -E9.104"/>
    <route id="r_23" edges="E1.410 E9.72"/>
    <route id="r_24" edges="E10 E8 -E9.104.775"/>
    <route id="r_25" edges="E10 E8 -E7"/>
    <route id="r_26" edges="-E9.104.235 -E9.104.775"/>
    <route id="r_27" edges="E9 E9.71"/>
    <route id="r_28" edges="-E7 -E11"/>
    <route id="r_29" edges="E11 -E7.201"/>
    <route id="r_3" edges="E5 -E1.821"/>
    <route id="r_30" edges="E7 E7.134"/>
    <route id="r_31" edges="E7 -E11"/>
    <route id="r_32" edges="E11 E7.134"/>
    <route id="r_33" edges="E1 -E6"/>
    <route id="r_34" edges="E6 -E1.1113"/>
    <route id="r_35" edges="-E7.201 E1.118"/>
    <route id="r_36" edges="-E1.821 E7"/>
    <route id="r_4" edges="E1.118 E1.410"/>
    <route id="r_5" edges="-E1 -E1.821"/>
    <route id="r_6" edges="E1.118 E2"/>
    <route id="r_7" edges="-E1 -E1.821"/>
    <route id="r_8" edges="-E1 E2"/>
    <route id="r_9" edges="-E1 -E5"/>

    <flow id="f_0" route="r_0" begin="0" end="3600" probability="0.05"/>
    <flow id="f_1" route="r_1" begin="0" end="3600" probability="0.03"/>
    <flow id="f_2" route="r_2" begin="0" end="3600" probability="0.04"/>
    <flow id="f_3" route="r_3" begin="0" end="3600" probability="0.02"/>
    <flow id="f_4" route="r_4" begin="0" end="3600" probability="0.05"/>
    <flow id="f_5" route="r_5" begin="0" end="3600" probability="0.03"/>
    <flow id="f_8" route="r_8" begin="0" end="3600" probability="0.04"/>
    <flow id="f_10" route="r_10" begin="0" end="3600" probability="0.02"/>
    <flow id="f_12" route="r_12" begin="0" end="3600" probability="0.05"/>
    <flow id="f_13" route="r_13" begin="0" end="3600" probability="0.03"/>
    <flow id="f_14" route="r_14" begin="0" end="3600" probability="0.04"/>
    <flow id="f_20" route="r_20" begin="0" end="3600" probability="0.02"/>
    <flow id="f_21" route="r_21" begin="0" end="3600" probability="0.05"/>
    <flow id="f_27" route="r_27" begin="0" end="3600" probability="0.03"/>
    <flow id="f_30" route="r_30" begin="0" end="3600" probability="0.04"/>
    <flow id="f_32" route="r_31" begin="0" end="3600" probability="0.04"/>
    <flow id="f_34" route="r_32" begin="0" end="3600" probability="0.03"/>
    <flow id="f_35" route="r_33" begin="0" end="3600" probability="0.04"/>
</routes>
